data/state_estimation/SE_PT2040_Su/state_estimation_PT2040_Su_t10.csv
bus,vm_pu,va_degree,p_mw,q_mvar
1,1.036841,0.053125,0.041940,-48.362518
2,1.033294,0.111232,0.060035,-45.305027
3,1.041731,0.058399,0.035879,-30.322805
4,1.040324,0.119261,0.034332,-44.226151
5,1.014740,0.358721,790.534142,-98.707569
6,1.017650,0.217225,0.008679,-3.689568
7,1.041188,0.034901,-0.013771,74.572300
8,1.010510,-0.073075,-0.042399,-0.046232
9,1.023618,0.021853,0.012384,-0.060653
10,1.046005,0.211564,823.729147,0.041846
11,1.017353,0.004436,-4.589652,-0.399074
12,1.007760,0.001184,0.038978,0.069931
13,1.022472,0.030237,-8.258794,-1.866213
14,1.025079,0.023216,-0.067006,-0.087698
15,1.043168,0.160336,823.817302,-0.052057
16,1.008571,0.024457,0.038531,0.025597
17,1.018708,0.049740,0.074372,-0.033463
18,1.017009,0.071169,-0.034317,0.073772
19,1.016127,0.079165,0.066543,0.032248
20,1.027128,0.062808,387.231125,0.007524
21,1.017752,0.053087,0.002482,0.016257
22,1.033619,0.098896,23.154908,38.925227
23,1.001646,-0.024366,-0.015077,-0.013621
24,1.022461,0.062130,-0.101470,0.007775
25,1.025922,0.111092,791.124319,-0.043257
26,1.044738,0.187739,-4.660566,-0.242909
27,1.031600,0.083486,-4.578522,-0.149829
28,1.024720,0.071612,-3.339210,0.546767
29,1.016275,0.023655,-0.064314,-0.014985
30,1.027430,0.081356,30.965267,20.032874
31,1.015942,0.059890,-0.060996,-0.038644
32,1.024981,0.081878,-0.005128,-0.035715
33,1.031126,0.082955,0.018940,-0.053641
34,1.019668,0.016213,-0.031608,0.078672
35,1.003117,-0.012087,-0.048425,-0.035429
36,1.016423,-0.072614,0.014154,0.146768
37,1.021699,-0.084654,-0.110714,0.033996
38,1.020111,-0.022580,-0.055107,-0.035783
39,1.017543,-0.036214,-0.068541,0.021829
40,1.017637,0.217678,0.030448,-0.004878
41,1.019760,-0.028039,0.005707,-0.033621
42,1.012312,0.019152,0.062548,0.031094
43,1.021355,-0.082034,0.064223,0.042083
44,1.017141,-0.024000,-0.040751,-0.095010
45,1.022176,-0.051486,-0.010693,0.022051
46,1.021883,-0.074545,-0.006899,-0.033340
47,1.021330,0.000779,0.106180,-0.035544
48,1.015739,-0.028564,0.030625,0.031000
49,1.022799,-0.012740,-0.055136,-0.080154
50,1.022838,-0.074442,-32.100279,-0.068705
51,1.017739,0.067272,-0.052942,-0.032031
52,1.021272,-0.049591,-0.032999,-0.014045
53,1.017265,-0.031475,0.002277,0.000717
54,1.023143,0.178595,0.003207,-0.048491
55,1.019089,-0.085870,-0.051852,-0.002510
56,1.021838,-0.090037,-0.025277,0.003421
57,1.021952,-0.010189,-0.004771,0.027604
58,1.019561,-0.086349,-0.059503,0.083008
59,1.022046,-0.085797,-0.032518,0.025577
60,1.021068,0.000561,-0.014930,-0.084197
61,1.020588,0.001748,90.016466,-1.885426
62,1.014956,0.057407,-0.030031,0.019754
63,1.023751,0.154727,0.128860,-0.004189
64,1.017235,-0.083946,0.025666,0.048402
65,1.013216,0.079360,0.006524,0.062509
66,1.020871,0.009565,0.023002,-0.052560
67,1.022073,-0.008481,-2.640759,0.895050
68,1.017895,-0.030076,-0.012926,0.006112
69,1.017869,-0.017514,-0.020645,-0.046886
70,1.018307,0.023693,-0.069489,0.080307
71,1.017137,-0.042314,-0.007850,-0.039860
72,1.011299,0.057931,0.030240,-0.042297
73,1.020645,0.109177,0.004443,0.017776
74,1.019333,-0.068657,0.044379,-0.047289
75,1.018273,0.041484,0.111515,-0.054207
76,1.018989,-0.083997,-0.091483,-0.037054
77,1.019593,0.144276,-0.030015,0.038448
78,1.013488,-0.015458,0.060534,-0.137571
79,1.020480,0.063449,0.125252,0.056443
80,1.046252,0.125715,0.052899,0.089186
81,1.030899,0.004042,0.007635,0.067865
82,1.039397,-0.020719,-0.001376,0.021478
83,1.042388,0.013746,-0.026870,-0.021671
84,1.042299,0.022357,0.032820,-0.042142
85,1.037407,-0.004523,0.027848,0.036059
86,1.041806,0.027933,-0.035170,-0.063203
87,1.046269,0.092608,-0.073812,-0.006807
88,1.033888,0.031150,0.038770,-0.003960
89,1.039441,-0.016102,-0.074030,0.029945
90,1.033670,0.046484,0.017984,0.055474
91,1.036531,0.044192,-0.005561,-0.034023
92,1.028616,0.010429,-0.021123,-0.012148
93,1.033060,0.015003,-0.028232,0.039481
94,1.033186,0.008816,-0.059104,-0.001073
95,1.041167,0.017549,-0.044395,-0.054311
96,1.036534,0.055427,0.021988,-0.008803
97,1.041433,0.016039,-0.058586,0.003171
98,1.042833,0.058667,-0.035170,0.008420
99,1.047341,0.057766,0.016892,-0.034907
100,1.044044,-0.000020,-32.024694,0.009290
101,1.035088,0.011655,-0.065600,-0.014555
102,1.026632,0.053357,0.056609,-0.030365
103,1.035782,0.023541,0.013206,0.002309
104,1.033590,0.045925,0.059830,0.027582
105,1.042666,0.119423,-0.009144,0.045937
106,1.033943,0.111640,-0.018736,0.036255
107,1.030036,0.035645,-0.038499,0.009072
108,1.009479,0.027886,-48.251269,-1.603907
109,1.018863,-0.145140,-243.751427,-18.120767
110,1.021631,-0.146205,-210.549355,-8.500178
111,1.016990,-0.074909,-154.401470,-11.893450
112,1.022239,-0.002828,-104.858804,-6.259700
113,1.027981,0.156560,-121.286259,-19.593640
114,1.019556,-0.083151,-146.446043,-1.309932
115,1.004263,0.197338,-29.871159,23.992710
116,1.011214,-0.090701,-345.824849,-39.084445
117,1.013634,-0.022374,-56.561854,-5.481729
118,1.012021,-0.014213,-114.309931,6.592289
119,1.030889,-0.078871,-195.610982,-40.542981
120,1.014470,-0.075285,-218.852599,3.463453
121,1.005942,-0.050657,-207.988564,-13.760781
122,1.028632,-0.062114,-264.518370,-32.622435
123,1.024806,-0.009394,-172.173114,-16.227590
124,1.022308,-0.096316,-144.324972,6.960879
125,1.019895,-0.121617,-162.687962,-15.448767
126,1.028553,0.138470,-121.348485,-30.811261
127,1.017991,-0.033932,-113.798732,8.800475
128,1.024190,0.007458,-146.105015,-28.858497
129,1.021885,-0.100510,-232.743465,-1.523636
130,1.012845,-0.077553,-299.660766,-35.977740
131,1.023693,-0.070051,-184.676067,-28.042017
132,1.010487,-0.069537,-65.529387,2.537442
133,1.005461,0.004161,-212.369981,23.984711
134,1.019516,-0.092321,-189.471521,13.247069
135,1.019999,-0.129661,-211.253841,-32.204656
136,1.018950,-0.159019,-241.854225,-39.868975
137,1.020827,-0.064894,-168.281455,-0.051140
138,1.017732,-0.034591,-157.022228,-17.686368
139,1.018522,-0.162864,-265.825246,0.321994
140,1.020408,0.029676,-92.165987,-8.546193
141,1.015969,0.015397,-108.017075,-39.265946
142,1.016618,-0.017226,-146.560941,-3.140865
143,1.005621,-0.140242,-100.875229,-19.203398
144,1.016610,-0.038949,-80.522815,4.916184
145,1.022789,-0.019428,-213.856294,44.748763
146,1.018034,0.092956,-6.428991,-1.063787
147,1.020544,-0.043572,-65.293890,-13.219815
148,1.006262,0.047944,0.064484,0.084879
149,1.001446,-0.093663,-225.761831,-24.467292
150,1.019966,0.032628,-37.056019,1.438048
151,1.011658,0.036842,-239.212020,-70.323106
152,1.011294,0.027325,-79.850641,2.326499
153,1.017463,0.149139,-7.373556,7.352495
154,1.012122,-0.135678,-113.758886,-13.089838
155,1.012157,0.069612,-29.180248,18.854689
156,1.017330,-0.002959,-28.099769,12.761982
157,1.011741,-0.098551,-128.717829,-6.791339
158,1.023249,-0.035083,-106.038947,-1.193741
159,1.024236,-0.033607,-123.243492,40.551414
160,1.022671,-0.027141,-114.498958,6.530757
161,1.013186,-0.051280,-16.814483,7.770986
162,1.014188,0.025619,-57.184252,11.019468
163,1.021390,0.070111,-27.233829,8.258555
164,1.021408,0.087025,-72.684883,-7.223523
165,1.004409,0.129418,42.385165,5.471927
166,1.012385,-0.065299,3.372915,-21.620714
167,1.006576,0.033562,-28.579618,33.195832
168,1.019753,-0.100053,-153.554163,-59.349917
169,1.023145,-0.005689,-43.505739,37.856349
170,1.012531,-0.029932,-31.716753,16.437828
171,1.007317,-0.059850,-60.727790,-7.601057
172,1.005128,0.050073,-31.745923,9.685301
173,1.029314,0.086383,72.008557,-12.396300
174,1.029226,0.086903,21.042020,-2.549840
175,1.042785,-0.044557,54.005270,10.041237
176,1.037750,-0.053902,21.975399,46.459469
177,1.030043,0.081893,-0.028415,0.182703
178,1.009630,0.036128,28.957602,-5.301390
179,1.027188,0.086747,31.140765,-8.521234
180,1.023941,0.025575,0.056991,0.051383
181,1.023202,0.071842,65.992457,-12.744881
182,1.030980,0.082928,-0.058661,31.249389
183,1.047859,0.177839,117.998363,11.148285
184,1.027404,0.070724,-0.054442,0.052861
185,1.028114,0.053479,0.000652,0.039172
186,1.021926,0.048762,0.013299,0.012751
187,1.016510,-0.071818,26.454942,4.406581
188,1.015834,-0.071468,26.433668,-15.345257
189,1.015387,-0.072619,26.459798,-15.357780
190,1.017855,-0.027896,-0.047481,0.004296
191,1.022608,0.190502,184.455335,-25.137072
192,1.020034,0.165568,120.026814,-16.035643
193,1.024493,-0.009882,0.049161,0.000986
194,1.022564,0.092859,120.103957,8.671703
195,1.019722,-0.032680,-0.062795,16.378161
196,1.017876,0.217875,92.861967,69.543052
197,1.017932,0.065458,-0.005101,0.037109
198,1.019615,0.216593,0.039463,11.461763
199,1.020986,-0.049473,-0.008981,-0.009172
200,1.022693,0.178686,0.505013,-6.861808
201,1.022364,0.178895,32.510880,-12.488820
202,1.022433,0.178436,32.443970,16.808281
203,1.022939,0.178767,122.477697,-25.146781
204,1.020051,-0.082461,-0.031237,0.016688
205,1.020350,-0.084670,0.019495,-0.001438
206,1.020511,0.000758,34.985014,-4.489219
207,1.020344,0.001817,35.103355,-3.778763
208,1.019387,-0.022409,-0.049433,-0.065224
209,1.020619,-0.022934,-0.030300,-0.031689
210,1.020893,-0.021336,0.015863,-0.043538
211,1.020333,-0.022714,-0.036023,-0.044327
212,1.016734,0.056887,0.088448,-0.004472
213,1.022196,-0.084057,-0.001592,0.010597
214,1.021474,-0.084879,0.028733,-0.005585
215,1.022227,-0.083664,-0.026528,0.017577
216,1.021982,-0.084092,-0.036584,-0.019765
217,1.022813,-0.081301,-0.033666,0.025183
218,1.019296,0.009577,100.579381,4.642613
219,1.019921,-0.084932,0.013778,-0.081164
220,1.026132,-0.003545,593.980223,175.284080
221,1.024509,-0.003420,-0.011392,-0.065844
222,1.022679,-0.074456,235.259313,69.812881
223,1.015115,-0.013958,0.074038,-0.042762
224,1.019986,0.000512,-0.034602,-0.042025
225,1.034306,0.117514,95.452526,-4.244097
226,1.045873,0.042574,0.084084,-0.006065
227,1.043411,0.117999,0.048271,-13.107446
228,1.043793,0.118261,0.028118,-20.165900
229,1.037627,0.045040,-0.023356,43.895256
230,1.037416,0.044037,0.027148,29.495907
231,1.036087,0.047489,0.107157,15.951353
232,1.036933,0.054433,157.480003,-4.401861
233,1.036552,0.053945,157.462061,-4.825544
234,1.046575,0.095068,117.941285,0.756000
235,1.047338,0.093692,118.036293,0.960476
236,1.046513,0.093673,117.963338,1.051834
237,1.047748,0.057017,115.218758,12.565241
238,1.047827,0.058098,115.176118,12.531617
239,1.042147,0.000077,235.175283,0.448927
240,1.043527,0.000417,235.132881,47.718693
241,1.041882,0.022075,247.670049,-4.492887
242,1.042321,0.020943,247.725524,-7.823435
243,1.046967,0.058503,251.085288,16.817332
244,1.047258,0.057690,251.110902,12.577300
245,1.023411,0.085440,-39.644926,-10.574895
246,1.022662,0.024922,-25.029343,-6.696626
247,1.020681,0.048315,-4.600549,0.802953
248,1.020278,0.059607,-2.607691,1.844099
249,1.023170,0.024705,-7.870392,-0.778182
250,1.043353,0.160094,-15.433497,-0.604821
251,1.024039,0.095403,105.744348,0.714327
252,1.024602,0.103806,65.812839,-9.509402
253,1.020608,0.086598,47.618379,-1.749993
254,1.028110,0.082504,0.018085,1.904262
255,1.044808,0.156535,-34.197755,18.346458
256,1.016920,-0.029681,-112.167183,-18.014299
257,1.012440,0.048933,-3.926092,1.518749
258,1.016916,-0.030703,-3.317933,1.622062
259,1.014615,0.067766,-3.293606,2.425529
260,0.993792,-0.138745,-138.380259,-30.147541
261,1.013775,0.056866,-1.362073,1.722340
262,1.015544,-0.013825,3.877396,2.887626
263,1.015889,0.057124,0.931656,0.030005
264,1.020371,0.000242,2.473277,-2.894244
265,1.015724,-0.014841,3.685547,13.848630
266,1.016227,0.056757,0.770521,8.406477
267,1.017376,0.040113,20.393682,-60.387422
268,1.035032,0.046551,6.910372,24.307120
269,1.003371,0.182114,-0.088284,0.063372
270,1.002943,0.181536,-0.014308,-0.058915
271,1.004585,0.168243,-0.046045,0.045919
272,1.004578,0.143237,-0.031868,-0.003353
273,1.012873,-0.069049,30.021128,-7.924915
274,1.012907,-0.069535,-0.056490,0.044833
275,1.012127,-0.071189,-0.029538,-0.042708
276,1.011520,-0.082894,-0.001186,0.035003
277,1.011246,-0.083287,0.054206,-0.009784
278,1.011096,-0.086093,0.018704,-0.043982
279,1.010463,-0.089996,-0.012476,-0.018935
280,1.013213,-0.076175,0.104307,0.004592
281,1.012841,-0.072912,0.006928,-0.001483
282,1.012228,-0.069897,0.034053,0.007106
283,1.010692,-0.069757,-0.076984,-0.054331
284,1.019515,-0.032385,0.057700,-0.024093
285,1.019729,-0.032685,0.068496,-0.016324
286,1.022551,-0.019565,-0.011985,0.077707
287,1.005819,0.004204,-0.059278,0.062081
288,1.006980,0.004076,0.051355,-0.077325
289,1.007468,0.003473,-0.003309,-0.044698
290,1.009695,0.002583,-0.004626,0.007043
291,1.009800,0.002744,0.073365,0.017897
292,1.009976,0.002201,0.028275,-0.048969
293,1.011484,0.001903,-0.081474,0.055411
294,1.006924,0.043176,0.020158,0.026812
295,1.007126,0.036229,0.065966,-0.029825
296,1.006974,0.033863,-0.082286,-0.084008
297,1.007764,0.033241,-0.035243,0.074043
298,1.006636,0.113293,0.023519,-0.023905
299,1.006952,0.111371,-0.028236,0.078590
300,1.007189,0.112148,0.013662,-0.017183
301,1.006195,0.094963,0.107067,0.030972
302,1.006212,0.079069,-0.013841,0.027081
303,1.005308,0.061944,-0.023128,0.028322
304,1.005036,0.061750,-0.009686,0.021908
